24

H       0.12099158      -1.39520795      -4.71075086
O       0.71626294      -1.72959080      -3.98622025
H       0.07753820      -1.80761270      -3.23094433
H       1.19174898       2.70357949      -3.17390404
O       0.55526983       2.14143601      -3.68820863
H       1.15667323       1.44299692      -4.06508997
H       2.54202683       2.43114969      -0.70713169
O       1.57426160       2.65085350      -0.66713856
H       1.28897338       2.27505065       0.20892386
H       2.05629705      -0.30237680      -1.35577795
O       2.18054912      -0.65749212      -0.43808248
H       1.61492517      -1.46917706      -0.40131465
H      -2.86073808       0.01824538      -3.58530411
O      -1.90815259      -0.22653748      -3.72088076
H      -1.44027850       0.61080493      -3.46160912
H       4.19663295       0.07208729      -3.74733535
O       3.29690184       0.30756190      -4.08707072
H       2.86144420      -0.57755879      -4.23019433
H      -3.35000530       1.24978026       1.08803230
O      -3.23960365       2.20973590       1.30705606
H      -3.07411981       2.62983163       0.42157772
H      -1.86398529       3.21761406      -2.46987883
O      -1.83580213       2.56561163      -1.71802612
H      -0.85493854       2.44870446      -1.58174712
